GW	1	15	-0.829	0	0	0.829	0	0	0.01
GW	2	15	-0.618	0	0.171	0.618	0	0.171	0.01
GW	3	15	-0.525	0	0.327	0.525	0	0.327	0.01
GW	4	15	-0.472	0	0.488	0.472	0	0.488	0.01
GW	5	15	-0.435	0	0.646	0.435	0	0.646	0.01
GW	6	15	-0.406	0	0.796	0.406	0	0.796	0.01
GW	7	15	-0.384	0	0.939	0.384	0	0.939	0.01
GW	8	15	-0.365	0	1.077	0.365	0	1.077	0.01
GW	9	15	-0.346	0	1.208	0.346	0	1.208	0.01
GW	10	15	-0.329	0	1.333	0.329	0	1.333	0.01
GW	11	15	-0.313	0	1.451	0.313	0	1.451	0.01
GW	12	15	-0.297	0	1.565	0.297	0	1.565	0.01
GW	13	15	-0.282	0	1.672	0.282	0	1.672	0.01
GW	14	15	-0.268	0	1.773	0.268	0	1.773	0.01
GW	15	15	-0.255	0	1.870	0.255	0	1.870	0.01
GW	16	15	-0.242	0	1.962	0.242	0	1.962	0.01
GM	0	0	-47.447	0	0	0	0	1.5
GE 0
GN 1 0 0 0 0 0 0 0 0 0
EX 0 16 8 0 1.00 0.00 0
TL 1 8 2 8 -89 0 0 0 0 0
TL 2 8 3 8 -89 0 0 0 0 0
TL 3 8 4 8 -89 0 0 0 0 0
TL 4 8 5 8 -89 0 0 0 0 0
TL 5 8 6 8 -89 0 0 0 0 0
TL 6 8 7 8 -89 0 0 0 0 0
TL 7 8 8 8 -89 0 0 0 0 0
TL 8 8 9 8 -89 0 0 0 0 0
TL 9 8 10 8 -89 0 0 0 0 0
TL 10 8 11 8 -89 0 0 0 0 0
TL 11 8 12 8 -89 0 0 0 0 0
TL 12 8 13 8 -89 0 0 0 0 0
TL 13 8 14 8 -89 0 0 0 0 0
TL 14 8 15 8 -89 0 0 0 0 0
TL 15 8 16 8 -89 0 0 0 0 0
FR 0 1 0 0 105 10.000
RP 0 256 512 1001 0.7031250 0.7031250 0.7031250 0.7031250 1000 0
EN
